*Heading
** Job name: Job-4 Model name: all_steps_2
** Generated by: Abaqus/CAE 2022
*Preprint, echo=NO, model=NO, history=NO, contact=NO
**
** PARTS
**
*Part, name=P0_5MM
*Node
      1, 0.000500000024,           0.,           0.
      2, 0.000500000024,           0., 0.00100000005
      3,           0.,           0.,           0.
      4,           0.,           0., 0.00100000005
      5, 0.000500000024, 0.00100000005,           0.
      6, 0.000500000024, 0.00100000005, 0.00100000005
      7,           0., 0.00100000005,           0.
      8,           0., 0.00100000005, 0.00100000005
      9, 0.000500000024, 0.00200000009,           0.
     10, 0.000500000024, 0.00200000009, 0.00100000005
     11,           0., 0.00200000009,           0.
     12,           0., 0.00200000009, 0.00100000005
     13, 0.000500000024, 0.00300000003,           0.
     14, 0.000500000024, 0.00300000003, 0.00100000005
     15,           0., 0.00300000003,           0.
     16,           0., 0.00300000003, 0.00100000005
     17, 0.000500000024, 0.00400000019,           0.
     18, 0.000500000024, 0.00400000019, 0.00100000005
     19,           0., 0.00400000019,           0.
     20,           0., 0.00400000019, 0.00100000005
** ... 784 like lines cut
*Element, type=C3D8T
  1,   3,   4,   2,   1,   7,   8,   6,   5
  2,   7,   8,   6,   5,  11,  12,  10,   9
  3,  11,  12,  10,   9,  15,  16,  14,  13
  4,  15,  16,  14,  13,  19,  20,  18,  17
  5,  19,  20,  18,  17,  23,  24,  22,  21
  6,  23,  24,  22,  21,  27,  28,  26,  25
  7,  27,  28,  26,  25,  31,  32,  30,  29
  8,  31,  32,  30,  29,  35,  36,  34,  33
  9,  35,  36,  34,  33,  39,  40,  38,  37
 10,  39,  40,  38,  37,  43,  44,  42,  41
 11,  43,  44,  42,  41,  47,  48,  46,  45
 12,  47,  48,  46,  45,  51,  52,  50,  49
 13,  51,  52,  50,  49,  55,  56,  54,  53
 14,  55,  56,  54,  53,  59,  60,  58,  57
 15,  59,  60,  58,  57,  63,  64,  62,  61
 16,  63,  64,  62,  61,  67,  68,  66,  65
 17,  67,  68,  66,  65,  71,  72,  70,  69
 18,  71,  72,  70,  69,  75,  76,  74,  73
 19,  75,  76,  74,  73,  79,  80,  78,  77
 20,  79,  80,  78,  77,  83,  84,  82,  81
** ... 180 like lines cut
*Nset, nset=Set-45, generate
   1,  804,    1
*Elset, elset=Set-45, generate
   1,  200,    1
*Elset, elset=Set-2, generate
  6,  10,   1
*Elset, elset=Set-3, generate
 11,  15,   1
*Elset, elset=Set-4, generate
 16,  20,   1
*Elset, elset=Set-5, generate
 21,  25,   1
*Elset, elset=Set-6, generate
 26,  30,   1
*Elset, elset=Set-7, generate
 31,  35,   1
*Elset, elset=Set-8, generate
 36,  40,   1
*Elset, elset=Set-9, generate
 41,  45,   1
*Elset, elset=Set-10, generate
 46,  50,   1
*Elset, elset=Set-11, generate
 51,  55,   1
*Elset, elset=Set-12, generate
 56,  60,   1
*Elset, elset=Set-13, generate
 61,  65,   1
*Elset, elset=Set-14, generate
 66,  70,   1
*Elset, elset=Set-15, generate
 71,  75,   1
*Elset, elset=Set-16, generate
 76,  80,   1
*Elset, elset=Set-17, generate
 81,  85,   1
*Elset, elset=Set-18, generate
 86,  90,   1
*Elset, elset=Set-19, generate
 91,  95,   1
*Elset, elset=Set-20, generate
** ... 43 like lines cut
** Section: Section-1-SET-1
*Solid Section, elset=Set-45, material=A6061
,
*End Part
**  
*Part, name=P4_19
*Node
      1,  0.200000003,           0.,           0.
      2,  0.200000003, 0.00320764165, 1.31912038e-05
      3,  0.200000003, 0.00641506631, 5.2763924e-05
      4,  0.200000003, 0.00962205697, 0.000118715485
      5,  0.200000003, 0.0128283966, 0.000211041421
      6,  0.200000003, 0.0160338692, 0.000329735485
      7,  0.200000003, 0.0192382559, 0.000474789646
      8,  0.200000003, 0.0224413425, 0.000646194094
      9,  0.200000003,  0.025642911, 0.000843937276
     10,  0.200000003, 0.0288427435, 0.00106800569
     11,  0.200000003, 0.0320406258, 0.00131838443
     12,  0.200000003,   0.03523634, 0.00159505627
     13,  0.200000003,   0.03842967, 0.00189800258
     14,  0.200000003, 0.0416204035, 0.00222720299
     15,  0.200000003,  0.044808317, 0.00258263503
     16,  0.200000003, 0.0479932018, 0.00296427496
     17,  0.200000003, 0.0511748418, 0.00337209669
     18,  0.200000003, 0.0543530174, 0.00380607252
     19,  0.200000003,  0.057527516, 0.00426617358
     20,  0.200000003, 0.0606981255, 0.0047523682
** ... 6938 like lines cut
*Element, type=C3D8T
   1,   50,   51,    2,    1,  148,  149,  100,   99
   2,   51,   52,    3,    2,  149,  150,  101,  100
   3,   52,   53,    4,    3,  150,  151,  102,  101
   4,   53,   54,    5,    4,  151,  152,  103,  102
   5,   54,   55,    6,    5,  152,  153,  104,  103
   6,   55,   56,    7,    6,  153,  154,  105,  104
   7,   56,   57,    8,    7,  154,  155,  106,  105
   8,   57,   58,    9,    8,  155,  156,  107,  106
   9,   58,   59,   10,    9,  156,  157,  108,  107
  10,   59,   60,   11,   10,  157,  158,  109,  108
  11,   60,   61,   12,   11,  158,  159,  110,  109
  12,   61,   62,   13,   12,  159,  160,  111,  110
  13,   62,   63,   14,   13,  160,  161,  112,  111
  14,   63,   64,   15,   14,  161,  162,  113,  112
  15,   64,   65,   16,   15,  162,  163,  114,  113
  16,   65,   66,   17,   16,  163,  164,  115,  114
  17,   66,   67,   18,   17,  164,  165,  116,  115
  18,   67,   68,   19,   18,  165,  166,  117,  116
  19,   68,   69,   20,   19,  166,  167,  118,  117
  20,   69,   70,   21,   20,  167,  168,  119,  118
** ... 3340 like lines cut
*Nset, nset=Set-1, generate
    1,  6958,     1
*Elset, elset=Set-1, generate
    1,  3360,     1
*Nset, nset=all_1, generate
    1,  6958,     1
*Elset, elset=all_1, generate
    1,  3360,     1
*Elset, elset=all, generate
    1,  3360,     1
** Section: Section-1-SET-1
*Solid Section, elset=Set-1, material=A6061
,
*End Part
**  
**
** ASSEMBLY
**
*Assembly, name=Assembly
**  
*Instance, name=P4_19-1, part=P4_19
          0.,      0.00025,           0.
*End Instance
**  
*Instance, name=P4_19-2, part=P4_19
         0.2,     -0.00025,       0.0005
         0.2,     -0.00025,       0.0005,          0.2,     -0.00025,       1.0005,         180.
*End Instance
**  
*Instance, name=P0_5MM-1, part=P0_5MM
          0.,      0.00025,           0.
          0.,      0.00025,           0.,           0.,      0.00025, -1.00000001268805, 89.9999992730282
*End Instance
**  
*Elset, elset=Set-13, instance=P4_19-2
    1,    2,    3,    4,   49,   50,   51,   52,   97,   98,   99,  100,  145,  146,  147,  148
  193,  194,  195,  196,  241,  242,  243,  244,  289,  290,  291,  292,  337,  338,  339,  340
  385,  386,  387,  388,  433,  434,  435,  436,  481,  482,  483,  484,  529,  530,  531,  532
  577,  578,  579,  580,  625,  626,  627,  628,  673,  674,  675,  676,  721,  722,  723,  724
  769,  770,  771,  772,  817,  818,  819,  820,  865,  866,  867,  868,  913,  914,  915,  916
  961,  962,  963,  964, 1009, 1010, 1011, 1012, 1057, 1058, 1059, 1060, 1105, 1106, 1107, 1108
 1153, 1154, 1155, 1156, 1201, 1202, 1203, 1204, 1249, 1250, 1251, 1252, 1297, 1298, 1299, 1300
 1345, 1346, 1347, 1348, 1393, 1394, 1395, 1396, 1441, 1442, 1443, 1444, 1489, 1490, 1491, 1492
 1537, 1538, 1539, 1540, 1585, 1586, 1587, 1588, 1633, 1634, 1635, 1636, 1681, 1682, 1683, 1684
 1729, 1730, 1731, 1732, 1777, 1778, 1779, 1780, 1825, 1826, 1827, 1828, 1873, 1874, 1875, 1876
 1921, 1922, 1923, 1924, 1969, 1970, 1971, 1972, 2017, 2018, 2019, 2020, 2065, 2066, 2067, 2068
 2113, 2114, 2115, 2116, 2161, 2162, 2163, 2164, 2209, 2210, 2211, 2212, 2257, 2258, 2259, 2260
 2305, 2306, 2307, 2308, 2353, 2354, 2355, 2356, 2401, 2402, 2403, 2404, 2449, 2450, 2451, 2452
 2497, 2498, 2499, 2500, 2545, 2546, 2547, 2548, 2593, 2594, 2595, 2596, 2641, 2642, 2643, 2644
 2689, 2690, 2691, 2692, 2737, 2738, 2739, 2740, 2785, 2786, 2787, 2788, 2833, 2834, 2835, 2836
 2881, 2882, 2883, 2884, 2929, 2930, 2931, 2932, 2977, 2978, 2979, 2980, 3025, 3026, 3027, 3028
 3073, 3074, 3075, 3076, 3121, 3122, 3123, 3124, 3169, 3170, 3171, 3172, 3217, 3218, 3219, 3220
 3265, 3266, 3267, 3268, 3313, 3314, 3315, 3316
*Nset, nset=Set-21, instance=P4_19-2, generate
   49,  6958,    49
*Elset, elset=Set-21, instance=P4_19-2, generate
   48,  3360,    48
*Nset, nset=Set-22, instance=P4_19-2, generate
    1,  6910,    49
*Elset, elset=Set-22, instance=P4_19-2, generate
    1,  3313,    48
*Nset, nset=Set-23, instance=P4_19-1, generate
   49,  6958,    49
*Elset, elset=Set-23, instance=P4_19-1, generate
   48,  3360,    48
*Nset, nset=Set-24, instance=P4_19-1
    1,    2,    3,    4,    5,    6,    7,    8,    9,   10,   11,   12,   13,   14,   15,   16
   17,   18,   19,   20,   21,   22,   23,   24,   25,   26,   27,   28,   29,   30,   31,   32
   33,   34,   35,   36,   37,   38,   39,   40,   41,   42,   43,   44,   45,   46,   47,   48
   49,   50,   51,   52,   53,   54,   55,   56,   57,   58,   59,   60,   61,   62,   63,   64
   65,   66,   67,   68,   69,   70,   71,   72,   73,   74,   75,   76,   77,   78,   79,   80
   81,   82,   83,   84,   85,   86,   87,   88,   89,   90,   91,   92,   93,   94,   95,   96
   97,   98, 6861, 6862, 6863, 6864, 6865, 6866, 6867, 6868, 6869, 6870, 6871, 6872, 6873, 6874
 6875, 6876, 6877, 6878, 6879, 6880, 6881, 6882, 6883, 6884, 6885, 6886, 6887, 6888, 6889, 6890
 6891, 6892, 6893, 6894, 6895, 6896, 6897, 6898, 6899, 6900, 6901, 6902, 6903, 6904, 6905, 6906
 6907, 6908, 6909, 6910, 6911, 6912, 6913, 6914, 6915, 6916, 6917, 6918, 6919, 6920, 6921, 6922
 6923, 6924, 6925, 6926, 6927, 6928, 6929, 6930, 6931, 6932, 6933, 6934, 6935, 6936, 6937, 6938
 6939, 6940, 6941, 6942, 6943, 6944, 6945, 6946, 6947, 6948, 6949, 6950, 6951, 6952, 6953, 6954
 6955, 6956, 6957, 6958
*Nset, nset=Set-24, instance=P4_19-2
    1,    2,    3,    4,    5,    6,    7,    8,    9,   10,   11,   12,   13,   14,   15,   16
   17,   18,   19,   20,   21,   22,   23,   24,   25,   26,   27,   28,   29,   30,   31,   32
   33,   34,   35,   36,   37,   38,   39,   40,   41,   42,   43,   44,   45,   46,   47,   48
   49,   50,   51,   52,   53,   54,   55,   56,   57,   58,   59,   60,   61,   62,   63,   64
   65,   66,   67,   68,   69,   70,   71,   72,   73,   74,   75,   76,   77,   78,   79,   80
   81,   82,   83,   84,   85,   86,   87,   88,   89,   90,   91,   92,   93,   94,   95,   96
   97,   98, 6861, 6862, 6863, 6864, 6865, 6866, 6867, 6868, 6869, 6870, 6871, 6872, 6873, 6874
 6875, 6876, 6877, 6878, 6879, 6880, 6881, 6882, 6883, 6884, 6885, 6886, 6887, 6888, 6889, 6890
 6891, 6892, 6893, 6894, 6895, 6896, 6897, 6898, 6899, 6900, 6901, 6902, 6903, 6904, 6905, 6906
 6907, 6908, 6909, 6910, 6911, 6912, 6913, 6914, 6915, 6916, 6917, 6918, 6919, 6920, 6921, 6922
 6923, 6924, 6925, 6926, 6927, 6928, 6929, 6930, 6931, 6932, 6933, 6934, 6935, 6936, 6937, 6938
 6939, 6940, 6941, 6942, 6943, 6944, 6945, 6946, 6947, 6948, 6949, 6950, 6951, 6952, 6953, 6954
 6955, 6956, 6957, 6958
*Elset, elset=Set-24, instance=P4_19-1
    1,    2,    3,    4,    5,    6,    7,    8,    9,   10,   11,   12,   13,   14,   15,   16
   17,   18,   19,   20,   21,   22,   23,   24,   25,   26,   27,   28,   29,   30,   31,   32
   33,   34,   35,   36,   37,   38,   39,   40,   41,   42,   43,   44,   45,   46,   47,   48
 3313, 3314, 3315, 3316, 3317, 3318, 3319, 3320, 3321, 3322, 3323, 3324, 3325, 3326, 3327, 3328
 3329, 3330, 3331, 3332, 3333, 3334, 3335, 3336, 3337, 3338, 3339, 3340, 3341, 3342, 3343, 3344
 3345, 3346, 3347, 3348, 3349, 3350, 3351, 3352, 3353, 3354, 3355, 3356, 3357, 3358, 3359, 3360
*Elset, elset=Set-24, instance=P4_19-2
    1,    2,    3,    4,    5,    6,    7,    8,    9,   10,   11,   12,   13,   14,   15,   16
   17,   18,   19,   20,   21,   22,   23,   24,   25,   26,   27,   28,   29,   30,   31,   32
   33,   34,   35,   36,   37,   38,   39,   40,   41,   42,   43,   44,   45,   46,   47,   48
 3313, 3314, 3315, 3316, 3317, 3318, 3319, 3320, 3321, 3322, 3323, 3324, 3325, 3326, 3327, 3328
 3329, 3330, 3331, 3332, 3333, 3334, 3335, 3336, 3337, 3338, 3339, 3340, 3341, 3342, 3343, 3344
 3345, 3346, 3347, 3348, 3349, 3350, 3351, 3352, 3353, 3354, 3355, 3356, 3357, 3358, 3359, 3360
*Nset, nset=Set-29, instance=P4_19-1, generate
    1,  6910,    49
*Elset, elset=Set-29, instance=P4_19-1, generate
    1,  3313,    48
*Nset, nset=Set-30, instance=P4_19-2, generate
    1,  6910,    49
*Elset, elset=Set-30, instance=P4_19-2, generate
    1,  3313,    48
*Nset, nset=Set-31, instance=P4_19-1
    1,    2,    3,    4,    5,    6,    7,    8,    9,   10,   11,   12,   13,   14,   15,   16
   17,   18,   19,   20,   21,   22,   23,   24,   25,   26,   27,   28,   29,   30,   31,   32
   33,   34,   35,   36,   37,   38,   39,   40,   41,   42,   43,   44,   45,   46,   47,   48
   49,   99,  100,  101,  102,  103,  104,  105,  106,  107,  108,  109,  110,  111,  112,  113
  114,  115,  116,  117,  118,  119,  120,  121,  122,  123,  124,  125,  126,  127,  128,  129
  130,  131,  132,  133,  134,  135,  136,  137,  138,  139,  140,  141,  142,  143,  144,  145
  146,  147,  197,  198,  199,  200,  201,  202,  203,  204,  205,  206,  207,  208,  209,  210
  211,  212,  213,  214,  215,  216,  217,  218,  219,  220,  221,  222,  223,  224,  225,  226
  227,  228,  229,  230,  231,  232,  233,  234,  235,  236,  237,  238,  239,  240,  241,  242
  243,  244,  245,  295,  296,  297,  298,  299,  300,  301,  302,  303,  304,  305,  306,  307
  308,  309,  310,  311,  312,  313,  314,  315,  316,  317,  318,  319,  320,  321,  322,  323
  324,  325,  326,  327,  328,  329,  330,  331,  332,  333,  334,  335,  336,  337,  338,  339
  340,  341,  342,  343,  393,  394,  395,  396,  397,  398,  399,  400,  401,  402,  403,  404
  405,  406,  407,  408,  409,  410,  411,  412,  413,  414,  415,  416,  417,  418,  419,  420
  421,  422,  423,  424,  425,  426,  427,  428,  429,  430,  431,  432,  433,  434,  435,  436
  437,  438,  439,  440,  441,  491,  492,  493,  494,  495,  496,  497,  498,  499,  500,  501
  502,  503,  504,  505,  506,  507,  508,  509,  510,  511,  512,  513,  514,  515,  516,  517
  518,  519,  520,  521,  522,  523,  524,  525,  526,  527,  528,  529,  530,  531,  532,  533
  534,  535,  536,  537,  538,  539,  589,  590,  591,  592,  593,  594,  595,  596,  597,  598
  599,  600,  601,  602,  603,  604,  605,  606,  607,  608,  609,  610,  611,  612,  613,  614
** ... 198 like lines cut
*Nset, nset=Set-31, instance=P4_19-2
    1,    2,    3,    4,    5,    6,    7,    8,    9,   10,   11,   12,   13,   14,   15,   16
   17,   18,   19,   20,   21,   22,   23,   24,   25,   26,   27,   28,   29,   30,   31,   32
   33,   34,   35,   36,   37,   38,   39,   40,   41,   42,   43,   44,   45,   46,   47,   48
   49,   99,  100,  101,  102,  103,  104,  105,  106,  107,  108,  109,  110,  111,  112,  113
  114,  115,  116,  117,  118,  119,  120,  121,  122,  123,  124,  125,  126,  127,  128,  129
  130,  131,  132,  133,  134,  135,  136,  137,  138,  139,  140,  141,  142,  143,  144,  145
  146,  147,  197,  198,  199,  200,  201,  202,  203,  204,  205,  206,  207,  208,  209,  210
  211,  212,  213,  214,  215,  216,  217,  218,  219,  220,  221,  222,  223,  224,  225,  226
  227,  228,  229,  230,  231,  232,  233,  234,  235,  236,  237,  238,  239,  240,  241,  242
  243,  244,  245,  295,  296,  297,  298,  299,  300,  301,  302,  303,  304,  305,  306,  307
  308,  309,  310,  311,  312,  313,  314,  315,  316,  317,  318,  319,  320,  321,  322,  323
  324,  325,  326,  327,  328,  329,  330,  331,  332,  333,  334,  335,  336,  337,  338,  339
  340,  341,  342,  343,  393,  394,  395,  396,  397,  398,  399,  400,  401,  402,  403,  404
  405,  406,  407,  408,  409,  410,  411,  412,  413,  414,  415,  416,  417,  418,  419,  420
  421,  422,  423,  424,  425,  426,  427,  428,  429,  430,  431,  432,  433,  434,  435,  436
  437,  438,  439,  440,  441,  491,  492,  493,  494,  495,  496,  497,  498,  499,  500,  501
  502,  503,  504,  505,  506,  507,  508,  509,  510,  511,  512,  513,  514,  515,  516,  517
  518,  519,  520,  521,  522,  523,  524,  525,  526,  527,  528,  529,  530,  531,  532,  533
  534,  535,  536,  537,  538,  539,  589,  590,  591,  592,  593,  594,  595,  596,  597,  598
  599,  600,  601,  602,  603,  604,  605,  606,  607,  608,  609,  610,  611,  612,  613,  614
** ... 198 like lines cut
*Elset, elset=Set-31, instance=P4_19-1, generate
    1,  3360,     1
*Elset, elset=Set-31, instance=P4_19-2, generate
    1,  3360,     1
*Nset, nset=Set-32, instance=P0_5MM-1, generate
   1,  803,    2
*Elset, elset=Set-32, instance=P0_5MM-1, generate
   1,  200,    1
*Nset, nset=all, instance=P4_19-1, generate
    1,  6958,     1
*Nset, nset=all, instance=P4_19-2, generate
    1,  6958,     1
*Nset, nset=all, instance=P0_5MM-1, generate
   1,  804,    1
*Elset, elset=all, instance=P4_19-1, generate
    1,  3360,     1
*Elset, elset=all, instance=P4_19-2, generate
    1,  3360,     1
*Elset, elset=all, instance=P0_5MM-1, generate
   1,  200,    1
*Nset, nset=all_1, instance=P4_19-1, generate
    1,  6958,     1
*Nset, nset=all_1, instance=P4_19-2, generate
    1,  6958,     1
*Nset, nset=all_1, instance=P0_5MM-1, generate
   1,  804,    1
*Elset, elset=all_1, instance=P4_19-1, generate
    1,  3360,     1
*Elset, elset=all_1, instance=P4_19-2, generate
    1,  3360,     1
*Elset, elset=all_1, instance=P0_5MM-1, generate
   1,  200,    1
*Nset, nset=bottom, instance=P4_19-2
    1,    2,    3,    4,    5,    6,    7,    8,    9,   10,   11,   12,   13,   14,   15,   16
   17,   18,   19,   20,   21,   22,   23,   24,   25,   26,   27,   28,   29,   30,   31,   32
   33,   34,   35,   36,   37,   38,   39,   40,   41,   42,   43,   44,   45,   46,   47,   48
   49,   99,  100,  101,  102,  103,  104,  105,  106,  107,  108,  109,  110,  111,  112,  113
  114,  115,  116,  117,  118,  119,  120,  121,  122,  123,  124,  125,  126,  127,  128,  129
  130,  131,  132,  133,  134,  135,  136,  137,  138,  139,  140,  141,  142,  143,  144,  145
  146,  147,  197,  198,  199,  200,  201,  202,  203,  204,  205,  206,  207,  208,  209,  210
  211,  212,  213,  214,  215,  216,  217,  218,  219,  220,  221,  222,  223,  224,  225,  226
  227,  228,  229,  230,  231,  232,  233,  234,  235,  236,  237,  238,  239,  240,  241,  242
  243,  244,  245,  295,  296,  297,  298,  299,  300,  301,  302,  303,  304,  305,  306,  307
  308,  309,  310,  311,  312,  313,  314,  315,  316,  317,  318,  319,  320,  321,  322,  323
  324,  325,  326,  327,  328,  329,  330,  331,  332,  333,  334,  335,  336,  337,  338,  339
  340,  341,  342,  343,  393,  394,  395,  396,  397,  398,  399,  400,  401,  402,  403,  404
  405,  406,  407,  408,  409,  410,  411,  412,  413,  414,  415,  416,  417,  418,  419,  420
  421,  422,  423,  424,  425,  426,  427,  428,  429,  430,  431,  432,  433,  434,  435,  436
  437,  438,  439,  440,  441,  491,  492,  493,  494,  495,  496,  497,  498,  499,  500,  501
  502,  503,  504,  505,  506,  507,  508,  509,  510,  511,  512,  513,  514,  515,  516,  517
  518,  519,  520,  521,  522,  523,  524,  525,  526,  527,  528,  529,  530,  531,  532,  533
  534,  535,  536,  537,  538,  539,  589,  590,  591,  592,  593,  594,  595,  596,  597,  598
  599,  600,  601,  602,  603,  604,  605,  606,  607,  608,  609,  610,  611,  612,  613,  614
** ... 198 like lines cut
*Elset, elset=bottom, instance=P4_19-2, generate
    1,  3360,     1
*Nset, nset=center, instance=P4_19-1
    1,   50,   99,  148,  197,  246,  981,  982,  983,  984,  985, 1030, 1031, 1032, 1033, 1034
 1079, 1080, 1081, 1082, 1083, 1128, 1129, 1130, 1131, 1132, 1177, 1178, 1179, 1180, 1181, 1226
 1227, 1228, 1229, 1230, 1275, 1276, 1277, 1278, 1279, 1324, 1325, 1326, 1327, 1328, 1373, 1374
 1375, 1376, 1377, 1422, 1423, 1424, 1425, 1426, 1471, 1472, 1473, 1474, 1475, 1520, 1521, 1522
 1523, 1524, 1569, 1570, 1571, 1572, 1573, 1618, 1619, 1620, 1621, 1622, 1667, 1668, 1669, 1670
 1671, 1716, 1717, 1718, 1719, 1720, 1765, 1766, 1767, 1768, 1769, 1814, 1815, 1816, 1817, 1818
 1863, 1864, 1865, 1866, 1867, 1912, 1913, 1914, 1915, 1916, 1961, 1962, 1963, 1964, 1965, 2010
 2011, 2012, 2013, 2014, 2059, 2060, 2061, 2062, 2063, 2108, 2109, 2110, 2111, 2112, 2157, 2158
 2159, 2160, 2161, 2206, 2207, 2208, 2209, 2210, 2255, 2256, 2257, 2258, 2259, 2304, 2305, 2306
 2307, 2308, 2353, 2354, 2355, 2356, 2357, 2402, 2403, 2404, 2405, 2406, 2451, 2452, 2453, 2454
 2455, 2500, 2501, 2502, 2503, 2504, 2549, 2550, 2551, 2552, 2553, 2598, 2599, 2600, 2601, 2602
 2647, 2648, 2649, 2650, 2651, 2696, 2697, 2698, 2699, 2700, 2745, 2746, 2747, 2748, 2749, 2794
 2795, 2796, 2797, 2798, 2843, 2844, 2845, 2846, 2847, 2892, 2893, 2894, 2895, 2941, 2942, 2943
 2944, 2945, 2990, 2991, 2992, 2993, 3039, 3040, 3041, 3042, 3043, 3088, 3089, 3090, 3091, 3092
 3137, 3138, 3139, 3140, 3141, 3186, 3187, 3188, 3189, 3190, 3235, 3236, 3237, 3238, 3239, 3284
 3285, 3286, 3287, 3288, 3333, 3334, 3335, 3336, 3337, 3382, 3383, 3384, 3385, 3386, 3431, 3432
 3433, 3434, 3435, 3480, 3481, 3482, 3483, 3484, 3529, 3530, 3531, 3532, 3533, 3578, 3579, 3580
 3581, 3582, 3627, 3628, 3629, 3630, 3631, 3676, 3677, 3678, 3679, 3680, 3725, 3726, 3727, 3728
 3729, 3774, 3775, 3776, 3777, 3778, 3823, 3824, 3825, 3826, 3827, 3872, 3873, 3874, 3875, 3876
 3921, 3922, 3923, 3924, 3925, 3970, 3971, 3972, 3973, 3974, 4019, 4020, 4021, 4022, 4023, 4068
** ... 15 like lines cut
*Nset, nset=center, instance=P4_19-2
    1,   50,   99,  148,  197,  246,  589,  590,  591,  592,  593,  639,  640,  641,  642,  687
  688,  689,  690,  691,  736,  737,  738,  739,  740,  785,  786,  787,  788,  789,  834,  835
  836,  837,  838,  883,  884,  885,  886,  887,  932,  933,  934,  935,  936,  981,  982,  983
  984,  985, 1030, 1031, 1032, 1033, 1034, 1079, 1080, 1081, 1082, 1083, 1128, 1129, 1130, 1131
 1132, 1177, 1178, 1179, 1180, 1181, 1226, 1227, 1228, 1229, 1230, 1275, 1276, 1277, 1278, 1279
 1324, 1325, 1326, 1327, 1328, 1373, 1374, 1375, 1376, 1377, 1422, 1423, 1424, 1425, 1426, 1471
 1472, 1473, 1474, 1475, 1520, 1521, 1522, 1523, 1524, 1569, 1570, 1571, 1572, 1573, 1618, 1619
 1620, 1621, 1622, 1667, 1668, 1669, 1670, 1671, 1716, 1717, 1718, 1719, 1720, 1765, 1766, 1767
 1768, 1769, 1814, 1815, 1816, 1817, 1818, 1863, 1864, 1865, 1866, 1867, 1912, 1913, 1914, 1915
 1916, 1961, 1962, 1963, 1964, 1965, 2010, 2011, 2012, 2013, 2014, 2059, 2060, 2061, 2062, 2063
 2108, 2109, 2110, 2111, 2112, 2157, 2158, 2159, 2160, 2161, 2206, 2207, 2208, 2209, 2210, 2255
 2256, 2257, 2258, 2259, 2304, 2305, 2306, 2307, 2308, 2353, 2354, 2355, 2356, 2357, 2402, 2403
 2404, 2405, 2406, 2451, 2452, 2453, 2454, 2455, 2500, 2501, 2502, 2503, 2504, 2549, 2550, 2551
 2552, 2553, 2598, 2599, 2600, 2601, 2602, 2647, 2648, 2649, 2650, 2651, 2696, 2697, 2698, 2699
 2700, 2745, 2746, 2747, 2748, 2749, 2794, 2795, 2796, 2797, 2798, 2843, 2844, 2845, 2846, 2847
 2892, 2893, 2894, 2895, 2896, 2941, 2942, 2943, 2944, 2945, 2990, 2991, 2992, 2993, 2994, 3039
 3040, 3041, 3042, 3043, 3088, 3089, 3090, 3091, 3092, 3137, 3138, 3139, 3140, 3141, 3186, 3187
 3188, 3189, 3190, 3235, 3236, 3237, 3238, 3239, 3284, 3285, 3286, 3287, 3288, 3333, 3334, 3335
 3336, 3337, 3382, 3383, 3384, 3385, 3386, 3431, 3432, 3433, 3434, 3435, 3480, 3481, 3482, 3483
 3484, 3529, 3530, 3531, 3532, 3533, 3578, 3579, 3580, 3581, 3582, 3627, 3628, 3629, 3630, 3631
** ... 16 like lines cut
*Nset, nset=center, instance=P0_5MM-1
  69,  71,  73,  74,  75,  76,  77,  78,  79,  80,  81,  82,  83,  84,  85,  86
  87,  88,  89,  90,  91,  92,  93,  94,  95,  96,  97,  98,  99, 100, 101, 102
 103, 104, 105, 106, 107, 108, 109, 110, 111, 112, 113, 114, 115, 116, 117, 118
 119, 120, 121, 122, 123, 124, 125, 126, 127, 128, 129, 130, 131, 132, 133, 134
 135, 136, 137, 138, 139, 140, 141, 142, 143, 144, 145, 146, 147, 148, 149, 150
 151, 152, 153, 154, 155, 156, 157, 158, 159, 160, 161, 162, 163, 164, 165, 166
 167, 168, 169, 170, 171, 172, 173, 174, 175, 176, 177, 178, 179, 180, 181, 182
 183, 184, 185, 186, 187, 188, 189, 190, 191, 192, 193, 194, 195, 196, 197, 198
 199, 200, 201, 202, 203, 204, 205, 206, 207, 208, 209, 210, 211, 212, 213, 214
 215, 216, 217, 218, 219, 220, 221, 222, 223, 224, 225, 226, 227, 228, 229, 230
 231, 232, 233, 234, 235, 236, 237, 238, 239, 240, 241, 242, 243, 244, 245, 246
 247, 248, 249, 250, 251, 252, 253, 254, 255, 256, 257, 258, 259, 260, 261, 262
 263, 264, 265, 266, 267, 268, 269, 270, 271, 272, 273, 274, 275, 276, 277, 278
 279, 280, 281, 282, 283, 284, 285, 286, 287, 288, 289, 290, 291, 292, 293, 294
 295, 296, 297, 298, 299, 300, 301, 302, 303, 304, 305, 306, 307, 308, 309, 310
 311, 312, 313, 314, 315, 316, 317, 318, 319, 320, 321, 322, 323, 324, 325, 326
 327, 328, 329, 330, 331, 332, 333, 334, 335, 336, 337, 338, 339, 340, 341, 342
 343, 344, 345, 346, 347, 348, 349, 350, 351, 352, 353, 354, 355, 356, 357, 358
 359, 360, 361, 362, 363, 364, 365, 366, 367, 368, 369, 370, 371, 372, 373, 374
 375, 376, 377, 378, 379, 380, 381, 382, 383, 384, 385, 386, 387, 388, 389, 390
** ... 20 like lines cut
*Nset, nset=fixed-re, instance=P4_19-2
   49,   98,  147,  196,  245,  294,  343,  392,  441,  490, 6517, 6566, 6615, 6664, 6713, 6762
 6811, 6860, 6909, 6958
*Nset, nset=fixed-re, instance=P4_19-1
   49,   98,  147,  196,  245,  294,  343,  392,  441,  490, 6517, 6566, 6615, 6664, 6713, 6762
 6811, 6860, 6909, 6958
*Nset, nset=msurf-1, instance=P4_19-2, generate
    1,  6910,    49
*Elset, elset=msurf-1, instance=P4_19-2, generate
    1,  3313,    48
*Nset, nset=msurf-2, instance=P4_19-1, generate
    1,  6910,    49
*Elset, elset=msurf-2, instance=P4_19-1, generate
    1,  3313,    48
*Nset, nset=side0, instance=P4_19-1, generate
   49,  6958,    49
*Nset, nset=side0, instance=P4_19-2, generate
   49,  6958,    49
*Elset, elset=side0, instance=P4_19-1, generate
   48,  3360,    48
*Elset, elset=side0, instance=P4_19-2, generate
   48,  3360,    48
*Nset, nset=ssurf1, instance=P0_5MM-1
   1,   2,   5,   6,   9,  10,  13,  14,  17,  18,  21,  22,  25,  26,  29,  30
  33,  34,  37,  38,  41,  42,  45,  46,  49,  50,  53,  54,  57,  58,  61,  62
  65,  66,  69,  70,  73,  74,  77,  78,  81,  82,  85,  86,  89,  90,  93,  94
  97,  98, 101, 102, 105, 106, 109, 110, 113, 114, 117, 118, 121, 122, 125, 126
 129, 130, 133, 134, 137, 138, 141, 142, 145, 146, 149, 150, 153, 154, 157, 158
 161, 162, 165, 166, 169, 170, 173, 174, 177, 178, 181, 182, 185, 186, 189, 190
 193, 194, 197, 198, 201, 202, 205, 206, 209, 210, 213, 214, 217, 218, 221, 222
 225, 226, 229, 230, 233, 234, 237, 238, 241, 242, 245, 246, 249, 250, 253, 254
 257, 258, 261, 262, 265, 266, 269, 270, 273, 274, 277, 278, 281, 282, 285, 286
 289, 290, 293, 294, 297, 298, 301, 302, 305, 306, 309, 310, 313, 314, 317, 318
 321, 322, 325, 326, 329, 330, 333, 334, 337, 338, 341, 342, 345, 346, 349, 350
 353, 354, 357, 358, 361, 362, 365, 366, 369, 370, 373, 374, 377, 378, 381, 382
 385, 386, 389, 390, 393, 394, 397, 398, 401, 402, 405, 406, 409, 410, 413, 414
 417, 418, 421, 422, 425, 426, 429, 430, 433, 434, 437, 438, 441, 442, 445, 446
 449, 450, 453, 454, 457, 458, 461, 462, 465, 466, 469, 470, 473, 474, 477, 478
 481, 482, 485, 486, 489, 490, 493, 494, 497, 498, 501, 502, 505, 506, 509, 510
 513, 514, 517, 518, 521, 522, 525, 526, 529, 530, 533, 534, 537, 538, 541, 542
 545, 546, 549, 550, 553, 554, 557, 558, 561, 562, 565, 566, 569, 570, 573, 574
 577, 578, 581, 582, 585, 586, 589, 590, 593, 594, 597, 598, 601, 602, 605, 606
 609, 610, 613, 614, 617, 618, 621, 622, 625, 626, 629, 630, 633, 634, 637, 638
** ... 6 like lines cut
*Elset, elset=ssurf1, instance=P0_5MM-1, generate
   1,  200,    1
*Nset, nset=surf-2, instance=P0_5MM-1
   3,   4,   7,   8,  11,  12,  15,  16,  19,  20,  23,  24,  27,  28,  31,  32
  35,  36,  39,  40,  43,  44,  47,  48,  51,  52,  55,  56,  59,  60,  63,  64
  67,  68,  71,  72,  75,  76,  79,  80,  83,  84,  87,  88,  91,  92,  95,  96
  99, 100, 103, 104, 107, 108, 111, 112, 115, 116, 119, 120, 123, 124, 127, 128
 131, 132, 135, 136, 139, 140, 143, 144, 147, 148, 151, 152, 155, 156, 159, 160
 163, 164, 167, 168, 171, 172, 175, 176, 179, 180, 183, 184, 187, 188, 191, 192
 195, 196, 199, 200, 203, 204, 207, 208, 211, 212, 215, 216, 219, 220, 223, 224
 227, 228, 231, 232, 235, 236, 239, 240, 243, 244, 247, 248, 251, 252, 255, 256
 259, 260, 263, 264, 267, 268, 271, 272, 275, 276, 279, 280, 283, 284, 287, 288
 291, 292, 295, 296, 299, 300, 303, 304, 307, 308, 311, 312, 315, 316, 319, 320
 323, 324, 327, 328, 331, 332, 335, 336, 339, 340, 343, 344, 347, 348, 351, 352
 355, 356, 359, 360, 363, 364, 367, 368, 371, 372, 375, 376, 379, 380, 383, 384
 387, 388, 391, 392, 395, 396, 399, 400, 403, 404, 407, 408, 411, 412, 415, 416
 419, 420, 423, 424, 427, 428, 431, 432, 435, 436, 439, 440, 443, 444, 447, 448
 451, 452, 455, 456, 459, 460, 463, 464, 467, 468, 471, 472, 475, 476, 479, 480
 483, 484, 487, 488, 491, 492, 495, 496, 499, 500, 503, 504, 507, 508, 511, 512
 515, 516, 519, 520, 523, 524, 527, 528, 531, 532, 535, 536, 539, 540, 543, 544
 547, 548, 551, 552, 555, 556, 559, 560, 563, 564, 567, 568, 571, 572, 575, 576
 579, 580, 583, 584, 587, 588, 591, 592, 595, 596, 599, 600, 603, 604, 607, 608
 611, 612, 615, 616, 619, 620, 623, 624, 627, 628, 631, 632, 635, 636, 639, 640
** ... 6 like lines cut
*Elset, elset=surf-2, instance=P0_5MM-1, generate
   1,  200,    1
*Nset, nset=weld, instance=P0_5MM-1, generate
   1,  804,    1
*Elset, elset=weld, instance=P0_5MM-1, generate
   1,  200,    1
*Elset, elset=_all_S5_1, internal, instance=P4_19-1, generate
    1,  3360,     1
*Elset, elset=_all_S5_1, internal, instance=P4_19-2, generate
    1,  3360,     1
*Elset, elset=_all_S5_1, internal, instance=P0_5MM-1, generate
   1,  200,    1
*Elset, elset=_all_S6_1, internal, instance=P4_19-1, generate
    1,  3313,    48
*Elset, elset=_all_S6_1, internal, instance=P4_19-2, generate
    1,  3313,    48
*Elset, elset=_all_S6_1, internal, instance=P0_5MM-1, generate
   1,  200,    1
*Elset, elset=_all_S3_1, internal, instance=P4_19-1, generate
    1,  3360,     1
*Elset, elset=_all_S3_1, internal, instance=P4_19-2, generate
    1,  3360,     1
*Elset, elset=_all_S3_1, internal, instance=P0_5MM-1, generate
   1,  200,    1
*Elset, elset=_all_S4_1, internal, instance=P4_19-1, generate
   48,  3360,    48
*Elset, elset=_all_S4_1, internal, instance=P0_5MM-1, generate
   1,  200,    1
*Elset, elset=_all_S1_1, internal, instance=P4_19-1, generate
  1,  48,   1
*Elset, elset=_all_S1_1, internal, instance=P4_19-2, generate
  1,  48,   1
*Elset, elset=_all_S1_1, internal, instance=P0_5MM-1
 1,
*Elset, elset=_all_S2_1, internal, instance=P4_19-1, generate
 3313,  3360,     1
*Elset, elset=_all_S2_1, internal, instance=P4_19-2, generate
 3313,  3360,     1
*Elset, elset=_all_S2_1, internal, instance=P0_5MM-1
 200,
*Surface, type=ELEMENT, name=all
_all_S5_1, S5
_all_S6_1, S6
_all_S4_1, S4
_all_S2_1, S2
_all_S3_1, S3
_all_S1_1, S1
*Elset, elset=_m-surf1_S5, internal, instance=P0_5MM-1, generate
   1,  200,    1
*Surface, type=ELEMENT, name=m-surf1
_m-surf1_S5, S5
*Elset, elset=_m-surf2_S3, internal, instance=P0_5MM-1, generate
   1,  200,    1
*Surface, type=ELEMENT, name=m-surf2
_m-surf2_S3, S3
*Elset, elset=_s-surf1_S6, internal, instance=P4_19-2, generate
    1,  3313,    48
*Surface, type=ELEMENT, name=s-surf1
_s-surf1_S6, S6
*Elset, elset=_s-surf2_S6, internal, instance=P4_19-1, generate
    1,  3313,    48
*Surface, type=ELEMENT, name=s-surf2
_s-surf2_S6, S6
*End Assembly
** 
** MATERIALS
** 
*Material, name=A6061
*Conductivity
 50.,  20.
 49., 100.
 47., 250.
 40., 500.
 27., 750.
 30.,1000.
 35.,1500.
145.,2000.
*Density
7850.,  20.
7850., 100.
7850., 250.
7850., 500.
7850., 750.
7850.,1000.
7850.,1500.
7859.,2000.
*Elastic
 2.05e+11, 0.28,  20.
 1.97e+11, 0.28, 100.
 1.87e+11, 0.29, 250.
  1.5e+11, 0.31, 500.
    7e+10, 0.35, 750.
    2e+10,  0.4,1000.
    1e+08, 0.45,1500.
    1e+06, 0.48,2000.
*Expansion
  1.1e-05,  20.
 1.05e-06, 100.
 1.22e-05, 250.
 1.39e-05, 500.
 1.48e-05, 750.
 1.35e-05,1000.
 1.33e-05,1500.
 1.31e-05,2000.
*Plastic
 3.45e+08,   0.,  20.
  3.1e+08,   0., 100.
 2.75e+08,   0., 250.
  2.4e+08,   0., 500.
    4e+07,   0., 750.
    2e+07,   0.,1000.
    1e+06,   0.,1500.
    1e+06,   0.,2000.
*Specific Heat
460.,  20.
465., 100.
480., 250.
575., 500.
625., 750.
675.,1000.
650.,1500.
820.,2000.
** 
** INTERACTION PROPERTIES
** 
*Surface Interaction, name=INTPROP-1
1.,
*Friction, rough
*Surface Behavior, no separation, pressure-overclosure=HARD
** 
** PHYSICAL CONSTANTS
** 
*Physical Constants, absolute zero=-273.15, stefan boltzmann=5.67e-08
** 
** PREDEFINED FIELDS
** 
** Name: Field-1   Type: Temperature
*Initial Conditions, type=TEMPERATURE
all, 20.
** ----------------------------------------------------------------
** 
** STEP: Step-0
** 
*Step, name=Step-0, nlgeom=YES, inc=10000
*Coupled Temperature-displacement, creep=none, deltmx=2000.
1e-10, 1e-10, 1e-15, 1e-10
** 
** INTERACTIONS
** 
** Interaction: Int-0
*Model Change, remove
weld, 
** 
** OUTPUT REQUESTS
** 
*Restart, write, frequency=0
** 
** FIELD OUTPUT: F-Output-1
** 
*Output, field
*Node Output
NT, RFL, U
*Element Output, directions=YES
HFL, S
*Contact Output
CDISP, CSTRESS
** 
** HISTORY OUTPUT: H-Output-1
** 
*Output, history, variable=PRESELECT
*End Step
** ----------------------------------------------------------------
** 
** STEP: flatten
** 
*Step, name=flatten, nlgeom=YES, inc=10000
*Coupled Temperature-displacement, creep=none, deltmx=10000.
0.01, 1., 1e-10, 1.
** 
** BOUNDARY CONDITIONS
** 
** Name: fixed Type: Displacement/Rotation
*Boundary
fixed-re, 1, 1
fixed-re, 2, 2
fixed-re, 3, 3
** Name: side-weld-1 Type: Displacement/Rotation
*Boundary
Set-29, 3, 3
** Name: side-weld-2 Type: Displacement/Rotation
*Boundary
Set-30, 3, 3, -0.0005
** Name: weld Type: Displacement/Rotation
*Boundary
Set-32, 1, 1
Set-32, 2, 2
Set-32, 3, 3
** 
** OUTPUT REQUESTS
** 
*Restart, write, frequency=0
** 
** FIELD OUTPUT: F-Output-1
** 
*Output, field
*Node Output
NT, RFL, U
*Element Output, directions=YES
HFL, S
*Contact Output
CDISP, CSTRESS
** 
** HISTORY OUTPUT: H-Output-1
** 
*Output, history, variable=PRESELECT
*End Step
** ----------------------------------------------------------------
** 
** STEP: Step-1
** 
*Step, name=Step-1, nlgeom=YES, inc=10000
*Coupled Temperature-displacement, creep=none, deltmx=2000.
0.001, 0.125, 1e-07, 0.1
** 
** LOADS
** 
** Name: souurce   Type: Body heat flux
*Dflux
all_1, BFNU, 1.
** 
** INTERACTIONS
** 
** Interaction: Int-1
*Model Change, add
P0_5MM-1.Set-1, 
** Interaction: Int-flim
*Sfilm
all, F, 20., 10.
** Interaction: Int-radia
*Sradiate
all, R, 0., 0.85
** 
** OUTPUT REQUESTS
** 
*Restart, write, frequency=0
** 
** FIELD OUTPUT: F-Output-1
** 
*Output, field
*Node Output
NT, RFL, U
*Element Output, directions=YES
HFL, S
*Contact Output
CDISP, CSTRESS
** 
** HISTORY OUTPUT: H-Output-1
** 
*Output, history, variable=PRESELECT
*End Step
** ----------------------------------------------------------------
** 
** STEP: Step-2
** 
*Step, name=Step-2, nlgeom=YES, inc=10000
*Coupled Temperature-displacement, creep=none, deltmx=2000.
0.001, 0.125, 1e-07, 0.1
** 
** INTERACTIONS
** 
** Interaction: Int-2
*Model Change, add
P0_5MM-1.Set-2, 
** 
** OUTPUT REQUESTS
** 
*Restart, write, frequency=0
** 
** FIELD OUTPUT: F-Output-1
** 
*Output, field
*Node Output
NT, RFL, U
*Element Output, directions=YES
HFL, S
*Contact Output
CDISP, CSTRESS
** 
** HISTORY OUTPUT: H-Output-1
** 
*Output, history, variable=PRESELECT
*End Step
** ----------------------------------------------------------------
** 
** STEP: Step-3
** 
*Step, name=Step-3, nlgeom=YES, inc=10000
*Coupled Temperature-displacement, creep=none, deltmx=2000.
0.001, 0.125, 1e-07, 0.1
** 
** INTERACTIONS
** 
** Interaction: Int-3
*Model Change, add
P0_5MM-1.Set-3, 
** 
** OUTPUT REQUESTS
** 
*Restart, write, frequency=0
** 
** FIELD OUTPUT: F-Output-1
** 
*Output, field
*Node Output
NT, RFL, U
*Element Output, directions=YES
HFL, S
*Contact Output
CDISP, CSTRESS
** 
** HISTORY OUTPUT: H-Output-1
** 
*Output, history, variable=PRESELECT
*End Step
** ----------------------------------------------------------------
** 
** STEP: Step-4
** 
*Step, name=Step-4, nlgeom=YES, inc=10000
*Coupled Temperature-displacement, creep=none, deltmx=2000.
0.001, 0.125, 1e-07, 0.1
** 
** INTERACTIONS
** 
** Interaction: Int-4
*Model Change, add
P0_5MM-1.Set-4, 
** 
** OUTPUT REQUESTS
** 
*Restart, write, frequency=0
** 
** FIELD OUTPUT: F-Output-1
** 
*Output, field
*Node Output
NT, RFL, U
*Element Output, directions=YES
HFL, S
*Contact Output
CDISP, CSTRESS
** 
** HISTORY OUTPUT: H-Output-1
** 
*Output, history, variable=PRESELECT
*End Step
** ----------------------------------------------------------------
** 
** STEP: Step-5
** 
*Step, name=Step-5, nlgeom=YES, inc=10000
*Coupled Temperature-displacement, creep=none, deltmx=2000.
0.001, 0.125, 1e-07, 0.1
** 
** INTERACTIONS
** 
** Interaction: Int-5
*Model Change, add
P0_5MM-1.Set-5, 
** 
** OUTPUT REQUESTS
** 
*Restart, write, frequency=0
** 
** FIELD OUTPUT: F-Output-1
** 
*Output, field
*Node Output
NT, RFL, U
*Element Output, directions=YES
HFL, S
*Contact Output
CDISP, CSTRESS
** 
** HISTORY OUTPUT: H-Output-1
** 
*Output, history, variable=PRESELECT
*End Step
** ----------------------------------------------------------------
** 
** STEP: Step-6
** 
*Step, name=Step-6, nlgeom=YES, inc=10000
*Coupled Temperature-displacement, creep=none, deltmx=2000.
0.001, 0.125, 1e-07, 0.1
** 
** INTERACTIONS
** 
** Interaction: Int-6
*Model Change, add
P0_5MM-1.Set-6, 
** 
** OUTPUT REQUESTS
** 
*Restart, write, frequency=0
** 
** FIELD OUTPUT: F-Output-1
** 
*Output, field
*Node Output
NT, RFL, U
*Element Output, directions=YES
HFL, S
*Contact Output
CDISP, CSTRESS
** 
** HISTORY OUTPUT: H-Output-1
** 
*Output, history, variable=PRESELECT
*End Step
** ----------------------------------------------------------------
** 
** STEP: Step-7
** 
*Step, name=Step-7, nlgeom=YES, inc=10000
*Coupled Temperature-displacement, creep=none, deltmx=2000.
0.001, 0.125, 1e-07, 0.1
** 
** INTERACTIONS
** 
** Interaction: Int-7
*Model Change, add
P0_5MM-1.Set-7, 
** 
** OUTPUT REQUESTS
** 
*Restart, write, frequency=0
** 
** FIELD OUTPUT: F-Output-1
** 
*Output, field
*Node Output
NT, RFL, U
*Element Output, directions=YES
HFL, S
*Contact Output
CDISP, CSTRESS
** 
** HISTORY OUTPUT: H-Output-1
** 
*Output, history, variable=PRESELECT
*End Step
** ----------------------------------------------------------------
** 
** STEP: Step-8
** 
*Step, name=Step-8, nlgeom=YES, inc=10000
*Coupled Temperature-displacement, creep=none, deltmx=2000.
0.001, 0.125, 1e-07, 0.1
** 
** INTERACTIONS
** 
** Interaction: Int-8
*Model Change, add
P0_5MM-1.Set-8, 
** 
** OUTPUT REQUESTS
** 
*Restart, write, frequency=0
** 
** FIELD OUTPUT: F-Output-1
** 
*Output, field
*Node Output
NT, RFL, U
*Element Output, directions=YES
HFL, S
*Contact Output
CDISP, CSTRESS
** 
** HISTORY OUTPUT: H-Output-1
** 
*Output, history, variable=PRESELECT
*End Step
** ----------------------------------------------------------------
** 
** STEP: Step-9
** 
*Step, name=Step-9, nlgeom=YES, inc=10000
*Coupled Temperature-displacement, creep=none, deltmx=2000.
0.001, 0.125, 1e-07, 0.1
** 
** INTERACTIONS
** 
** Interaction: Int-9
*Model Change, add
P0_5MM-1.Set-9, 
** 
** OUTPUT REQUESTS
** 
*Restart, write, frequency=0
** 
** FIELD OUTPUT: F-Output-1
** 
*Output, field
*Node Output
NT, RFL, U
*Element Output, directions=YES
HFL, S
*Contact Output
CDISP, CSTRESS
** 
** HISTORY OUTPUT: H-Output-1
** 
*Output, history, variable=PRESELECT
*End Step
** ----------------------------------------------------------------
** 
** STEP: Step-10
** 
*Step, name=Step-10, nlgeom=YES, inc=10000
*Coupled Temperature-displacement, creep=none, deltmx=2000.
0.001, 0.125, 1e-07, 0.1
** 
** INTERACTIONS
** 
** Interaction: Int-10
*Model Change, add
P0_5MM-1.Set-10, 
** 
** OUTPUT REQUESTS
** 
*Restart, write, frequency=0
** 
** FIELD OUTPUT: F-Output-1
** 
*Output, field
*Node Output
NT, RFL, U
*Element Output, directions=YES
HFL, S
*Contact Output
CDISP, CSTRESS
** 
** HISTORY OUTPUT: H-Output-1
** 
*Output, history, variable=PRESELECT
*End Step
** ----------------------------------------------------------------
** 
** STEP: Step-11
** 
*Step, name=Step-11, nlgeom=YES, inc=10000
*Coupled Temperature-displacement, creep=none, deltmx=2000.
0.001, 0.125, 1e-07, 0.1
** 
** INTERACTIONS
** 
** Interaction: Int-11
*Model Change, add
P0_5MM-1.Set-11, 
** 
** OUTPUT REQUESTS
** 
*Restart, write, frequency=0
** 
** FIELD OUTPUT: F-Output-1
** 
*Output, field
*Node Output
NT, RFL, U
*Element Output, directions=YES
HFL, S
*Contact Output
CDISP, CSTRESS
** 
** HISTORY OUTPUT: H-Output-1
** 
*Output, history, variable=PRESELECT
*End Step
** ----------------------------------------------------------------
** 
** STEP: Step-12
** 
*Step, name=Step-12, nlgeom=YES, inc=10000
*Coupled Temperature-displacement, creep=none, deltmx=2000.
0.001, 0.125, 1e-07, 0.1
** 
** INTERACTIONS
** 
** Interaction: Int-12
*Model Change, add
P0_5MM-1.Set-12, 
** 
** OUTPUT REQUESTS
** 
*Restart, write, frequency=0
** 
** FIELD OUTPUT: F-Output-1
** 
*Output, field
*Node Output
NT, RFL, U
*Element Output, directions=YES
HFL, S
*Contact Output
CDISP, CSTRESS
** 
** HISTORY OUTPUT: H-Output-1
** 
*Output, history, variable=PRESELECT
*End Step
** ----------------------------------------------------------------
** 
** STEP: Step-13
** 
*Step, name=Step-13, nlgeom=YES, inc=10000
*Coupled Temperature-displacement, creep=none, deltmx=2000.
0.001, 0.125, 1e-07, 0.1
** 
** INTERACTIONS
** 
** Interaction: Int-13
*Model Change, add
P0_5MM-1.Set-13, 
** 
** OUTPUT REQUESTS
** 
*Restart, write, frequency=0
** 
** FIELD OUTPUT: F-Output-1
** 
*Output, field
*Node Output
NT, RFL, U
*Element Output, directions=YES
HFL, S
*Contact Output
CDISP, CSTRESS
** 
** HISTORY OUTPUT: H-Output-1
** 
*Output, history, variable=PRESELECT
*End Step
** ----------------------------------------------------------------
** 
** STEP: Step-14
** 
*Step, name=Step-14, nlgeom=YES, inc=10000
*Coupled Temperature-displacement, creep=none, deltmx=2000.
0.001, 0.125, 1e-07, 0.1
** 
** INTERACTIONS
** 
** Interaction: Int-14
*Model Change, add
P0_5MM-1.Set-14, 
** 
** OUTPUT REQUESTS
** 
*Restart, write, frequency=0
** 
** FIELD OUTPUT: F-Output-1
** 
*Output, field
*Node Output
NT, RFL, U
*Element Output, directions=YES
HFL, S
*Contact Output
CDISP, CSTRESS
** 
** HISTORY OUTPUT: H-Output-1
** 
*Output, history, variable=PRESELECT
*End Step
** ----------------------------------------------------------------
** 
** STEP: Step-15
** 
*Step, name=Step-15, nlgeom=YES, inc=10000
*Coupled Temperature-displacement, creep=none, deltmx=2000.
0.001, 0.125, 1e-07, 0.1
** 
** INTERACTIONS
** 
** Interaction: Int-15
*Model Change, add
P0_5MM-1.Set-15, 
** 
** OUTPUT REQUESTS
** 
*Restart, write, frequency=0
** 
** FIELD OUTPUT: F-Output-1
** 
*Output, field
*Node Output
NT, RFL, U
*Element Output, directions=YES
HFL, S
*Contact Output
CDISP, CSTRESS
** 
** HISTORY OUTPUT: H-Output-1
** 
*Output, history, variable=PRESELECT
*End Step
** ----------------------------------------------------------------
** 
** STEP: Step-16
** 
*Step, name=Step-16, nlgeom=YES, inc=10000
*Coupled Temperature-displacement, creep=none, deltmx=2000.
0.001, 0.125, 1e-07, 0.1
** 
** INTERACTIONS
** 
** Interaction: Int-16
*Model Change, add
P0_5MM-1.Set-16, 
** 
** OUTPUT REQUESTS
** 
*Restart, write, frequency=0
** 
** FIELD OUTPUT: F-Output-1
** 
*Output, field
*Node Output
NT, RFL, U
*Element Output, directions=YES
HFL, S
*Contact Output
CDISP, CSTRESS
** 
** HISTORY OUTPUT: H-Output-1
** 
*Output, history, variable=PRESELECT
*End Step
** ----------------------------------------------------------------
** 
** STEP: Step-17
** 
*Step, name=Step-17, nlgeom=YES, inc=10000
*Coupled Temperature-displacement, creep=none, deltmx=2000.
0.001, 0.125, 1e-07, 0.1
** 
** INTERACTIONS
** 
** Interaction: Int-17
*Model Change, add
P0_5MM-1.Set-17, 
** 
** OUTPUT REQUESTS
** 
*Restart, write, frequency=0
** 
** FIELD OUTPUT: F-Output-1
** 
*Output, field
*Node Output
NT, RFL, U
*Element Output, directions=YES
HFL, S
*Contact Output
CDISP, CSTRESS
** 
** HISTORY OUTPUT: H-Output-1
** 
*Output, history, variable=PRESELECT
*End Step
** ----------------------------------------------------------------
** 
** STEP: Step-18
** 
*Step, name=Step-18, nlgeom=YES, inc=10000
*Coupled Temperature-displacement, creep=none, deltmx=2000.
0.001, 0.125, 1e-07, 0.1
** 
** INTERACTIONS
** 
** Interaction: Int-18
*Model Change, add
P0_5MM-1.Set-18, 
** 
** OUTPUT REQUESTS
** 
*Restart, write, frequency=0
** 
** FIELD OUTPUT: F-Output-1
** 
*Output, field
*Node Output
NT, RFL, U
*Element Output, directions=YES
HFL, S
*Contact Output
CDISP, CSTRESS
** 
** HISTORY OUTPUT: H-Output-1
** 
*Output, history, variable=PRESELECT
*End Step
** ----------------------------------------------------------------
** 
** STEP: Step-19
** 
*Step, name=Step-19, nlgeom=YES, inc=10000
*Coupled Temperature-displacement, creep=none, deltmx=2000.
0.001, 0.125, 1e-07, 0.1
** 
** INTERACTIONS
** 
** Interaction: Int-19
*Model Change, add
P0_5MM-1.Set-19, 
** 
** OUTPUT REQUESTS
** 
*Restart, write, frequency=0
** 
** FIELD OUTPUT: F-Output-1
** 
*Output, field
*Node Output
NT, RFL, U
*Element Output, directions=YES
HFL, S
*Contact Output
CDISP, CSTRESS
** 
** HISTORY OUTPUT: H-Output-1
** 
*Output, history, variable=PRESELECT
*End Step
** ----------------------------------------------------------------
** 
** STEP: Step-20
** 
*Step, name=Step-20, nlgeom=YES, inc=10000
*Coupled Temperature-displacement, creep=none, deltmx=2000.
0.001, 0.125, 1e-07, 0.1
** 
** INTERACTIONS
** 
** Interaction: Int-20
*Model Change, add
P0_5MM-1.Set-20, 
** 
** OUTPUT REQUESTS
** 
*Restart, write, frequency=0
** 
** FIELD OUTPUT: F-Output-1
** 
*Output, field
*Node Output
NT, RFL, U
*Element Output, directions=YES
HFL, S
*Contact Output
CDISP, CSTRESS
** 
** HISTORY OUTPUT: H-Output-1
** 
*Output, history, variable=PRESELECT
*End Step
** ----------------------------------------------------------------
** 
** STEP: Step-21
** 
*Step, name=Step-21, nlgeom=YES, inc=10000
*Coupled Temperature-displacement, creep=none, deltmx=2000.
0.001, 0.125, 1e-07, 0.1
** 
** INTERACTIONS
** 
** Interaction: Int-21
*Model Change, add
P0_5MM-1.Set-21, 
** 
** OUTPUT REQUESTS
** 
*Restart, write, frequency=0
** 
** FIELD OUTPUT: F-Output-1
** 
*Output, field
*Node Output
NT, RFL, U
*Element Output, directions=YES
HFL, S
*Contact Output
CDISP, CSTRESS
** 
** HISTORY OUTPUT: H-Output-1
** 
*Output, history, variable=PRESELECT
*End Step
** ----------------------------------------------------------------
** 
** STEP: Step-22
** 
*Step, name=Step-22, nlgeom=YES, inc=10000
*Coupled Temperature-displacement, creep=none, deltmx=2000.
0.001, 0.125, 1e-07, 0.1
** 
** INTERACTIONS
** 
** Interaction: Int-22
*Model Change, add
P0_5MM-1.Set-22, 
** 
** OUTPUT REQUESTS
** 
*Restart, write, frequency=0
** 
** FIELD OUTPUT: F-Output-1
** 
*Output, field
*Node Output
NT, RFL, U
*Element Output, directions=YES
HFL, S
*Contact Output
CDISP, CSTRESS
** 
** HISTORY OUTPUT: H-Output-1
** 
*Output, history, variable=PRESELECT
*End Step
** ----------------------------------------------------------------
** 
** STEP: Step-23
** 
*Step, name=Step-23, nlgeom=YES, inc=10000
*Coupled Temperature-displacement, creep=none, deltmx=2000.
0.001, 0.125, 1e-07, 0.1
** 
** INTERACTIONS
** 
** Interaction: Int-23
*Model Change, add
P0_5MM-1.Set-23, 
** 
** OUTPUT REQUESTS
** 
*Restart, write, frequency=0
** 
** FIELD OUTPUT: F-Output-1
** 
*Output, field
*Node Output
NT, RFL, U
*Element Output, directions=YES
HFL, S
*Contact Output
CDISP, CSTRESS
** 
** HISTORY OUTPUT: H-Output-1
** 
*Output, history, variable=PRESELECT
*End Step
** ----------------------------------------------------------------
** 
** STEP: Step-24
** 
*Step, name=Step-24, nlgeom=YES, inc=10000
*Coupled Temperature-displacement, creep=none, deltmx=2000.
0.001, 0.125, 1e-07, 0.1
** 
** INTERACTIONS
** 
** Interaction: Int-24
*Model Change, add
P0_5MM-1.Set-24, 
** 
** OUTPUT REQUESTS
** 
*Restart, write, frequency=0
** 
** FIELD OUTPUT: F-Output-1
** 
*Output, field
*Node Output
NT, RFL, U
*Element Output, directions=YES
HFL, S
*Contact Output
CDISP, CSTRESS
** 
** HISTORY OUTPUT: H-Output-1
** 
*Output, history, variable=PRESELECT
*End Step
** ----------------------------------------------------------------
** 
** STEP: Step-25
** 
*Step, name=Step-25, nlgeom=YES, inc=10000
*Coupled Temperature-displacement, creep=none, deltmx=2000.
0.001, 0.125, 1e-07, 0.1
** 
** INTERACTIONS
** 
** Interaction: Int-25
*Model Change, add
P0_5MM-1.Set-25, 
** 
** OUTPUT REQUESTS
** 
*Restart, write, frequency=0
** 
** FIELD OUTPUT: F-Output-1
** 
*Output, field
*Node Output
NT, RFL, U
*Element Output, directions=YES
HFL, S
*Contact Output
CDISP, CSTRESS
** 
** HISTORY OUTPUT: H-Output-1
** 
*Output, history, variable=PRESELECT
*End Step
** ----------------------------------------------------------------
** 
** STEP: Step-26
** 
*Step, name=Step-26, nlgeom=YES, inc=10000
*Coupled Temperature-displacement, creep=none, deltmx=2000.
0.001, 0.125, 1e-07, 0.1
** 
** INTERACTIONS
** 
** Interaction: Int-26
*Model Change, add
P0_5MM-1.Set-26, 
** 
** OUTPUT REQUESTS
** 
*Restart, write, frequency=0
** 
** FIELD OUTPUT: F-Output-1
** 
*Output, field
*Node Output
NT, RFL, U
*Element Output, directions=YES
HFL, S
*Contact Output
CDISP, CSTRESS
** 
** HISTORY OUTPUT: H-Output-1
** 
*Output, history, variable=PRESELECT
*End Step
** ----------------------------------------------------------------
** 
** STEP: Step-27
** 
*Step, name=Step-27, nlgeom=YES, inc=10000
*Coupled Temperature-displacement, creep=none, deltmx=2000.
0.001, 0.125, 1e-07, 0.1
** 
** INTERACTIONS
** 
** Interaction: Int-27
*Model Change, add
P0_5MM-1.Set-27, 
** 
** OUTPUT REQUESTS
** 
*Restart, write, frequency=0
** 
** FIELD OUTPUT: F-Output-1
** 
*Output, field
*Node Output
NT, RFL, U
*Element Output, directions=YES
HFL, S
*Contact Output
CDISP, CSTRESS
** 
** HISTORY OUTPUT: H-Output-1
** 
*Output, history, variable=PRESELECT
*End Step
** ----------------------------------------------------------------
** 
** STEP: Step-28
** 
*Step, name=Step-28, nlgeom=YES, inc=10000
*Coupled Temperature-displacement, creep=none, deltmx=2000.
0.001, 0.125, 1e-07, 0.1
** 
** INTERACTIONS
** 
** Interaction: Int-28
*Model Change, add
P0_5MM-1.Set-28, 
** 
** OUTPUT REQUESTS
** 
*Restart, write, frequency=0
** 
** FIELD OUTPUT: F-Output-1
** 
*Output, field
*Node Output
NT, RFL, U
*Element Output, directions=YES
HFL, S
*Contact Output
CDISP, CSTRESS
** 
** HISTORY OUTPUT: H-Output-1
** 
*Output, history, variable=PRESELECT
*End Step
** ----------------------------------------------------------------
** 
** STEP: Step-29
** 
*Step, name=Step-29, nlgeom=YES, inc=10000
*Coupled Temperature-displacement, creep=none, deltmx=2000.
0.001, 0.125, 1e-07, 0.1
** 
** INTERACTIONS
** 
** Interaction: Int-29
*Model Change, add
P0_5MM-1.Set-29, 
** 
** OUTPUT REQUESTS
** 
*Restart, write, frequency=0
** 
** FIELD OUTPUT: F-Output-1
** 
*Output, field
*Node Output
NT, RFL, U
*Element Output, directions=YES
HFL, S
*Contact Output
CDISP, CSTRESS
** 
** HISTORY OUTPUT: H-Output-1
** 
*Output, history, variable=PRESELECT
*End Step
** ----------------------------------------------------------------
** 
** STEP: Step-30
** 
*Step, name=Step-30, nlgeom=YES, inc=10000
*Coupled Temperature-displacement, creep=none, deltmx=2000.
0.001, 0.125, 1e-07, 0.1
** 
** INTERACTIONS
** 
** Interaction: Int-30
*Model Change, add
P0_5MM-1.Set-30, 
** 
** OUTPUT REQUESTS
** 
*Restart, write, frequency=0
** 
** FIELD OUTPUT: F-Output-1
** 
*Output, field
*Node Output
NT, RFL, U
*Element Output, directions=YES
HFL, S
*Contact Output
CDISP, CSTRESS
** 
** HISTORY OUTPUT: H-Output-1
** 
*Output, history, variable=PRESELECT
*End Step
** ----------------------------------------------------------------
** 
** STEP: Step-31
** 
*Step, name=Step-31, nlgeom=YES, inc=10000
*Coupled Temperature-displacement, creep=none, deltmx=2000.
0.001, 0.125, 1e-07, 0.1
** 
** INTERACTIONS
** 
** Interaction: Int-31
*Model Change, add
P0_5MM-1.Set-31, 
** 
** OUTPUT REQUESTS
** 
*Restart, write, frequency=0
** 
** FIELD OUTPUT: F-Output-1
** 
*Output, field
*Node Output
NT, RFL, U
*Element Output, directions=YES
HFL, S
*Contact Output
CDISP, CSTRESS
** 
** HISTORY OUTPUT: H-Output-1
** 
*Output, history, variable=PRESELECT
*End Step
** ----------------------------------------------------------------
** 
** STEP: Step-32
** 
*Step, name=Step-32, nlgeom=YES, inc=10000
*Coupled Temperature-displacement, creep=none, deltmx=2000.
0.001, 0.125, 1e-07, 0.1
** 
** INTERACTIONS
** 
** Interaction: Int-32
*Model Change, add
P0_5MM-1.Set-32, 
** 
** OUTPUT REQUESTS
** 
*Restart, write, frequency=0
** 
** FIELD OUTPUT: F-Output-1
** 
*Output, field
*Node Output
NT, RFL, U
*Element Output, directions=YES
HFL, S
*Contact Output
CDISP, CSTRESS
** 
** HISTORY OUTPUT: H-Output-1
** 
*Output, history, variable=PRESELECT
*End Step
** ----------------------------------------------------------------
** 
** STEP: Step-33
** 
*Step, name=Step-33, nlgeom=YES, inc=10000
*Coupled Temperature-displacement, creep=none, deltmx=2000.
0.001, 0.125, 1e-07, 0.1
** 
** INTERACTIONS
** 
** Interaction: Int-33
*Model Change, add
P0_5MM-1.Set-33, 
** 
** OUTPUT REQUESTS
** 
*Restart, write, frequency=0
** 
** FIELD OUTPUT: F-Output-1
** 
*Output, field
*Node Output
NT, RFL, U
*Element Output, directions=YES
HFL, S
*Contact Output
CDISP, CSTRESS
** 
** HISTORY OUTPUT: H-Output-1
** 
*Output, history, variable=PRESELECT
*End Step
** ----------------------------------------------------------------
** 
** STEP: Step-34
** 
*Step, name=Step-34, nlgeom=YES, inc=10000
*Coupled Temperature-displacement, creep=none, deltmx=2000.
0.001, 0.125, 1e-07, 0.1
** 
** INTERACTIONS
** 
** Interaction: Int-34
*Model Change, add
P0_5MM-1.Set-34, 
** 
** OUTPUT REQUESTS
** 
*Restart, write, frequency=0
** 
** FIELD OUTPUT: F-Output-1
** 
*Output, field
*Node Output
NT, RFL, U
*Element Output, directions=YES
HFL, S
*Contact Output
CDISP, CSTRESS
** 
** HISTORY OUTPUT: H-Output-1
** 
*Output, history, variable=PRESELECT
*End Step
** ----------------------------------------------------------------
** 
** STEP: Step-35
** 
*Step, name=Step-35, nlgeom=YES, inc=10000
*Coupled Temperature-displacement, creep=none, deltmx=2000.
0.001, 0.125, 1e-07, 0.1
** 
** INTERACTIONS
** 
** Interaction: Int-35
*Model Change, add
P0_5MM-1.Set-35, 
** 
** OUTPUT REQUESTS
** 
*Restart, write, frequency=0
** 
** FIELD OUTPUT: F-Output-1
** 
*Output, field
*Node Output
NT, RFL, U
*Element Output, directions=YES
HFL, S
*Contact Output
CDISP, CSTRESS
** 
** HISTORY OUTPUT: H-Output-1
** 
*Output, history, variable=PRESELECT
*End Step
** ----------------------------------------------------------------
** 
** STEP: Step-36
** 
*Step, name=Step-36, nlgeom=YES, inc=10000
*Coupled Temperature-displacement, creep=none, deltmx=2000.
0.001, 0.125, 1e-07, 0.1
** 
** INTERACTIONS
** 
** Interaction: Int-36
*Model Change, add
P0_5MM-1.Set-36, 
** 
** OUTPUT REQUESTS
** 
*Restart, write, frequency=0
** 
** FIELD OUTPUT: F-Output-1
** 
*Output, field
*Node Output
NT, RFL, U
*Element Output, directions=YES
HFL, S
*Contact Output
CDISP, CSTRESS
** 
** HISTORY OUTPUT: H-Output-1
** 
*Output, history, variable=PRESELECT
*End Step
** ----------------------------------------------------------------
** 
** STEP: Step-37
** 
*Step, name=Step-37, nlgeom=YES, inc=10000
*Coupled Temperature-displacement, creep=none, deltmx=2000.
0.001, 0.125, 1e-07, 0.1
** 
** INTERACTIONS
** 
** Interaction: Int-37
*Model Change, add
P0_5MM-1.Set-37, 
** 
** OUTPUT REQUESTS
** 
*Restart, write, frequency=0
** 
** FIELD OUTPUT: F-Output-1
** 
*Output, field
*Node Output
NT, RFL, U
*Element Output, directions=YES
HFL, S
*Contact Output
CDISP, CSTRESS
** 
** HISTORY OUTPUT: H-Output-1
** 
*Output, history, variable=PRESELECT
*End Step
** ----------------------------------------------------------------
** 
** STEP: Step-38
** 
*Step, name=Step-38, nlgeom=YES, inc=10000
*Coupled Temperature-displacement, creep=none, deltmx=2000.
0.001, 0.125, 1e-07, 0.1
** 
** INTERACTIONS
** 
** Interaction: Int-38
*Model Change, add
P0_5MM-1.Set-38, 
** 
** OUTPUT REQUESTS
** 
*Restart, write, frequency=0
** 
** FIELD OUTPUT: F-Output-1
** 
*Output, field
*Node Output
NT, RFL, U
*Element Output, directions=YES
HFL, S
*Contact Output
CDISP, CSTRESS
** 
** HISTORY OUTPUT: H-Output-1
** 
*Output, history, variable=PRESELECT
*End Step
** ----------------------------------------------------------------
** 
** STEP: Step-39
** 
*Step, name=Step-39, nlgeom=YES, inc=10000
*Coupled Temperature-displacement, creep=none, deltmx=2000.
0.001, 0.125, 1e-07, 0.1
** 
** INTERACTIONS
** 
** Interaction: Int-39
*Model Change, add
P0_5MM-1.Set-39, 
** 
** OUTPUT REQUESTS
** 
*Restart, write, frequency=0
** 
** FIELD OUTPUT: F-Output-1
** 
*Output, field
*Node Output
NT, RFL, U
*Element Output, directions=YES
HFL, S
*Contact Output
CDISP, CSTRESS
** 
** HISTORY OUTPUT: H-Output-1
** 
*Output, history, variable=PRESELECT
*End Step
** ----------------------------------------------------------------
** 
** STEP: Step-40
** 
*Step, name=Step-40, nlgeom=YES, inc=10000
*Coupled Temperature-displacement, creep=none, deltmx=2000.
0.001, 0.125, 1e-07, 0.1
** 
** INTERACTIONS
** 
** Interaction: Int-40
*Model Change, add
P0_5MM-1.Set-40, 
** 
** OUTPUT REQUESTS
** 
*Restart, write, frequency=0
** 
** FIELD OUTPUT: F-Output-1
** 
*Output, field
*Node Output
NT, RFL, U
*Element Output, directions=YES
HFL, S
*Contact Output
CDISP, CSTRESS
** 
** HISTORY OUTPUT: H-Output-1
** 
*Output, history, variable=PRESELECT
*End Step
** ----------------------------------------------------------------
** 
** STEP: cooling
** 
*Step, name=cooling, nlgeom=YES, inc=10000
*Coupled Temperature-displacement, creep=none, deltmx=2000.
0.1, 30., 0.0003, 1.
** 
** BOUNDARY CONDITIONS
** 
** Name: fixed Type: Displacement/Rotation
*Boundary, op=NEW
fixed-re, 1, 1
fixed-re, 2, 2
fixed-re, 3, 3
** Name: side-weld-1 Type: Displacement/Rotation
*Boundary, op=NEW
** Name: side-weld-2 Type: Displacement/Rotation
*Boundary, op=NEW
** Name: weld Type: Displacement/Rotation
*Boundary, op=NEW
** 
** INTERACTIONS
** 
** Interaction: Int-100
*Model Change, remove
weld, 
** 
** OUTPUT REQUESTS
** 
*Restart, write, frequency=0
** 
** FIELD OUTPUT: F-Output-1
** 
*Output, field
*Node Output
NT, RFL, U
*Element Output, directions=YES
HFL, S
*Contact Output
CDISP, CSTRESS
** 
** HISTORY OUTPUT: H-Output-1
** 
*Output, history, variable=PRESELECT
*End Step
** ----------------------------------------------------------------
** 
** STEP: unflatten
** 
*Step, name=unflatten, nlgeom=YES, inc=10000
*Coupled Temperature-displacement, creep=none, deltmx=2000.
0.01, 1., 1e-10, 0.1
** 
** BOUNDARY CONDITIONS
** 
** Name: BC-6 Type: Displacement/Rotation
*Boundary
center, 3, 3, 0.002
** 
** OUTPUT REQUESTS
** 
*Restart, write, frequency=0
** 
** FIELD OUTPUT: F-Output-1
** 
*Output, field
*Node Output
NT, RFL, U
*Element Output, directions=YES
HFL, S
*Contact Output
CDISP, CSTRESS
** 
** HISTORY OUTPUT: H-Output-1
** 
*Output, history, variable=PRESELECT
*End Step
